/*--------------------------------*- C++ -*----------------------------------*\
| =========                 |                                                 |
| \\      /  F ield         | OpenFOAM: The Open Source CFD Toolbox           |
|  \\    /   O peration     | Version:  v1906                                 |
|   \\  /    A nd           | Web:      www.OpenFOAM.com                      |
|    \\/     M anipulation  |                                                 |
\*---------------------------------------------------------------------------*/
FoamFile
{
    version     2.0;
    format      ascii;
    class       dictionary;
    object      blockMeshDict;
}
// * * * * * * * * * * * * * * * * * * * * * * * * * * * * * * * * * * * * * //

convertToMeters 1;

vertices
(
    (0.1 0.0 -0.08)
    (0.5 0.0 -0.08)
    (0.5 0.02 -0.08)
    (0.1 0.02 -0.08)
    (0.1 0.0  0.12)
    (0.5 0.0  0.12)
    (0.5 0.02  0.12)
    (0.1 0.02  0.12)
);

blocks
(
    hex (0 1 2 3 4 5 6 7) (40 1 20) simpleGrading (1 1 1)
);

edges
(
);

boundary
(
    oversetPatch
    {
        type overset;
        faces
        (
            (0 3 2 1)
            (2 6 5 1)
            (0 4 7 3)
            (4 5 6 7)
        );
    }
    floatingObject
    {
        type wall;
        faces ();
    }
    frontAndBack
    {
        type empty;
        faces 
	(
            (1 5 4 0)
            (3 7 6 2)
	);
    }
);

// ************************************************************************* //
