/*--------------------------------*- C++ -*----------------------------------*\
| =========                 |                                                 |
| \\      /  F ield         | OpenFOAM: The Open Source CFD Toolbox           |
|  \\    /   O peration     | Version:  v2006                                 |
|   \\  /    A nd           | Web:      www.OpenFOAM.com                      |
|    \\/     M anipulation  |                                                 |
\*---------------------------------------------------------------------------*/
FoamFile
{
    version     2.0;
    format      ascii;
    class       volScalarField;
    object      k;
}
// * * * * * * * * * * * * * * * * * * * * * * * * * * * * * * * * * * * * * //

dimensions      [0 2 -2 0 0 0 0];

internalField   uniform 0.02;

boundaryField
{
    #includeEtc "caseDicts/setConstraintTypes"

    stationaryWalls
    {
        type            kqRWallFunction;
        value           uniform 0.02;
    }
    atmosphere
    {
        type            inletOutlet;
        inletValue      uniform 0.02;
        value           uniform 0.02;
    }
    floatingObject
    {
        type            kqRWallFunction;
        value           uniform 0.02;
    }
    frontAndBack
    {
	type 		empty;
    }
}

// ************************************************************************* //
