/*--------------------------------*- C++ -*----------------------------------*\
| =========                 |                                                 |
| \\      /  F ield         | OpenFOAM: The Open Source CFD Toolbox           |
|  \\    /   O peration     | Version:  v2006                                 |
|   \\  /    A nd           | Web:      www.OpenFOAM.com                      |
|    \\/     M anipulation  |                                                 |
\*---------------------------------------------------------------------------*/
FoamFile
{
    version     2.0;
    format      ascii;
    class       volScalarField;
    location    "0";
    object      k;
}
// * * * * * * * * * * * * * * * * * * * * * * * * * * * * * * * * * * * * * //

dimensions      [0 2 -2 0 0 0 0];


internalField   uniform 1e-06;

boundaryField
{
    oversetPatch
    {
        type            overset;
        value           uniform 1e-06;
    }
    stationaryWalls
    {
        type            kqRWallFunction;
        value           uniform 1e-06;
    }
    atmosphere
    {
        type            inletOutlet;
        inletValue      uniform 1e-06;
        value           uniform 1e-06;
    }
    frontAndBack
    {
        type            empty;
    }
    floatingObject
    {
        type            kqRWallFunction;
        value           uniform 1e-06;
    }
}


// ************************************************************************* //
