/*--------------------------------*- C++ -*----------------------------------*\
| =========                 |                                                 |
| \\      /  F ield         | OpenFOAM: The Open Source CFD Toolbox           |
|  \\    /   O peration     | Version:  v2006                                 |
|   \\  /    A nd           | Web:      www.OpenFOAM.com                      |
|    \\/     M anipulation  |                                                 |
\*---------------------------------------------------------------------------*/
FoamFile
{
    version     2.0;
    format      ascii;
    class       dictionary;
    object      blockMeshDict;
}
// * * * * * * * * * * * * * * * * * * * * * * * * * * * * * * * * * * * * * //

scale 1;

vertices
(
// 0 - 7 
    (14.23	0.0 	-0.132)
    (14.59	0.0 	-0.132)
    (14.59 	0.02 	-0.132)
    (14.23	0.02 	-0.132)
    (14.23	0.0 	0.192)
    (14.59 	0.0 	0.192)
    (14.59	0.02 	0.192)
    (14.23	0.02 	0.192)  //6 cells in the overlapping region
);

blocks
(
    hex (0 1 2 3 4 5 6 7) (72 1 162) simpleGrading (1 1 1)
);

edges
(
);

boundary
(
    overset1
    {
        type overset;
        faces
        (
		(0 4 7 3)
		(1 2 6 5)
		(4 5 6 7)
		(0 3 2 1)
        );
    }
    floatingObject
    {
        type wall;
        faces ();
    }
    emptyWalls
    {
        type empty;
        faces
        (
        	(0 1 5 4)
        	(2 3 7 6)
        );
    }
);

// ************************************************************************* //
