/*--------------------------------*- C++ -*----------------------------------*\
| =========                 |                                                 |
| \\      /  F ield         | OpenFOAM: The Open Source CFD Toolbox           |
|  \\    /   O peration     | Version:  v2006                                 |
|   \\  /    A nd           | Website:  www.openfoam.com                      |
|    \\/     M anipulation  |                                                 |
\*---------------------------------------------------------------------------*/
FoamFile
{
    version     2.0;
    format      ascii;
    class       volScalarField;
    object      alphat;
}
// * * * * * * * * * * * * * * * * * * * * * * * * * * * * * * * * * * * * * //

dimensions      [1 -1 -1 0 0 0 0];

internalField   uniform 0;

boundaryField
{
    inlet
    {
        type            compressible::alphatWallFunction;
        Prt             0.85;
        value           $internalField;
    }

    outlet
    {
        type            compressible::alphatWallFunction;
        Prt             0.85;
        value           $internalField;
    }
    
    bottom
    {
        type            compressible::alphatWallFunction;
        Prt             0.85;
        value           $internalField;
    }

    slope
    {
        type            compressible::alphatWallFunction;
        Prt             0.85;
        value           $internalField;
    }
    
    frontAndBack
    {
        type            empty;
    }
    
    atmosphere
    {
        type            calculated;
        value           $internalField;
    }
}

// ************************************************************************* //
